@<TRIPOS>MOLECULE
ZINC000002002226
  47   47    0    0    0
SMALL
USER_CHARGES
NO_NAME
@<TRIPOS>ATOM
    1 C1       -2.7425    -1.4565     0.2468 C.3    1 <0>      -0.1500
    2 C2       -1.2249    -1.3008     0.1307 C.3    1 <0>       0.0600
    3 O3       -0.5885    -1.8731     1.3036 O.3    1 <0>      -0.3500
    4 C4        0.7567    -1.8173     1.3582 C.2    1 <0>       0.5100
    5 O5        1.3808    -1.3045     0.4506 O.2    1 <0>      -0.5000
    6 C6        1.4716    -2.3789     2.5199 C.ar   1 <0>      -0.1200
    7 C7        0.7559    -2.9744     3.5624 C.ar   1 <0>      -0.0400
    8 C8        1.4273    -3.4973     4.6450 C.ar   1 <0>      -0.1400
    9 C9        2.8145    -3.4336     4.7021 C.ar   1 <0>       0.1200
   10 O10       3.4725    -3.9507     5.7710 O.3    1 <0>      -0.2900
   11 C11       3.4604    -5.2869     5.9064 C.2    1 <0>       0.4600
   12 O12       2.9719    -5.9771     5.0434 O.2    1 <0>      -0.4800
   13 C13       4.0561    -5.9252     7.1347 C.3    1 <0>      -0.1100
   14 C14       3.9135    -7.4455     7.0395 C.3    1 <0>      -0.1100
   15 C15       4.5183    -8.0936     8.2865 C.3    1 <0>      -0.1200
   16 C16       4.3757    -9.6140     8.1913 C.3    1 <0>      -0.1300
   17 C17       4.9805   -10.2620     9.4384 C.3    1 <0>       0.0900
   18 N18       4.8439   -11.7178     9.3472 N.pl3  1 <0>      -0.6900
   19 C19       5.3159   -12.5135    10.3548 C.cat  1 <0>       0.7400
   20 N20       5.8996   -11.9647    11.4188 N.pl3  1 <0>      -0.7900
   21 N21       5.1918   -13.8370    10.2719 N.pl3  1 <0>      -0.8000
   22 H22       5.5264   -14.4012    10.9864 H      1 <0>       0.4400
   23 H23       4.7667   -14.2367     9.4970 H      1 <0>       0.4400
   24 C24       3.5300    -2.8423     3.6676 C.ar   1 <0>      -0.1300
   25 C25       2.8669    -2.3220     2.5786 C.ar   1 <0>      -0.0400
   26 H26      -3.0936    -0.9391     1.1395 H      1 <0>       0.0700
   27 H27      -3.2203    -1.0269    -0.6337 H      1 <0>       0.0800
   28 H28      -2.9949    -2.5146     0.3172 H      1 <0>       0.0700
   29 H29      -0.8738    -1.8183    -0.7621 H      1 <0>       0.0700
   30 H30      -0.9726    -0.2428     0.0602 H      1 <0>       0.0700
   31 H31      -0.3221    -3.0240     3.5190 H      1 <0>       0.1500
   32 H32       0.8750    -3.9573     5.4511 H      1 <0>       0.1400
   33 H33       5.1117    -5.6629     7.2048 H      1 <0>       0.1100
   34 H34       3.5328    -5.5660     8.0209 H      1 <0>       0.1100
   35 H35       2.8578    -7.7078     6.9694 H      1 <0>       0.0800
   36 H36       4.4367    -7.8047     6.1533 H      1 <0>       0.0800
   37 H37       5.5739    -7.8314     8.3566 H      1 <0>       0.0800
   38 H38       3.9950    -7.7344     9.1727 H      1 <0>       0.0800
   39 H39       3.3200    -9.8762     8.1212 H      1 <0>       0.0800
   40 H40       4.8989    -9.9732     7.3051 H      1 <0>       0.0800
   41 H41       6.0361    -9.9998     9.5085 H      1 <0>       0.0900
   42 H42       4.4572    -9.9028    10.3245 H      1 <0>       0.0900
   43 H43       4.4189   -12.1175     8.5723 H      1 <0>       0.4400
   44 H44       5.9899   -11.0008    11.4792 H      1 <0>       0.4400
   45 H45       6.2342   -12.5289    12.1334 H      1 <0>       0.4400
   46 H46       4.6079    -2.7945     3.7160 H      1 <0>       0.1400
   47 H47       3.4236    -1.8627     1.7752 H      1 <0>       0.1500
@<TRIPOS>BOND
   1    1    2 1
   2    1   26 1
   3    1   27 1
   4    1   28 1
   5    2    3 1
   6    2   29 1
   7    2   30 1
   8    3    4 1
   9    4    5 2
  10    4    6 1
  11    6   25 ar
  12    6    7 ar
  13    7    8 ar
  14    7   31 1
  15    8    9 ar
  16    8   32 1
  17    9   10 1
  18    9   24 ar
  19   10   11 1
  20   11   12 2
  21   11   13 1
  22   13   14 1
  23   13   33 1
  24   13   34 1
  25   14   15 1
  26   14   35 1
  27   14   36 1
  28   15   16 1
  29   15   37 1
  30   15   38 1
  31   16   17 1
  32   16   39 1
  33   16   40 1
  34   17   18 1
  35   17   41 1
  36   17   42 1
  37   18   19 ar
  38   18   43 1
  39   19   20 ar
  40   19   21 ar
  41   20   44 1
  42   20   45 1
  43   21   22 1
  44   21   23 1
  45   24   25 ar
  46   24   46 1
  47   25   47 1
