@<TRIPOS>MOLECULE
ZINC000003871842
52    53    1     0     0
SMALL
USER_CHARGES
@<TRIPOS>ATOM
1      C1      1.9255    0.7042    3.2981 C.3      1 ZINC000003871842    0.0800
2      N2      1.7951   -0.7213    2.9864 N.am     1 ZINC000003871842   -0.6200
3      C3      1.3582   -1.6607    4.0223 C.3      1 ZINC000003871842    0.0700
4      C4      2.0770   -1.1686    1.7467 C.2      1 ZINC000003871842    0.5100
5      O5      2.4386   -0.3909    0.8891 O.2      1 ZINC000003871842   -0.5100
6      C6      1.9428   -2.6349    1.4261 C.3      1 ZINC000003871842    0.0500
7      O7      2.3007   -2.8614    0.0372 O.3      1 ZINC000003871842   -0.3300
8      C8      2.2337   -4.1248   -0.4111 C.2      1 ZINC000003871842    0.4600
9      O9      1.8875   -5.0121    0.3323 O.2      1 ZINC000003871842   -0.5000
10     C10     2.5903   -4.4366   -1.8418 C.3      1 ZINC000003871842   -0.0800
11     C11     2.4333   -5.9151   -2.0879 C.ar     1 ZINC000003871842   -0.0700
12     C12     3.5003   -6.7677   -1.8727 C.ar     1 ZINC000003871842   -0.0800
13     C13     3.3590   -8.1233   -2.0980 C.ar     1 ZINC000003871842   -0.1100
14     C14     2.1450   -8.6290   -2.5401 C.ar     1 ZINC000003871842    0.0800
15     O15     2.0034   -9.9624   -2.7621 O.3      1 ZINC000003871842   -0.2900
16     C16     1.8413  -10.7490   -1.6798 C.2      1 ZINC000003871842    0.5000
17     O17     1.8070  -10.2557   -0.5698 O.2      1 ZINC000003871842   -0.4700
18     C18     1.7055  -12.2079   -1.8426 C.ar     1 ZINC000003871842   -0.1100
19     C19     1.7505  -12.7779   -3.1187 C.ar     1 ZINC000003871842   -0.0200
20     C20     1.6234  -14.1403   -3.2669 C.ar     1 ZINC000003871842   -0.1300
21     C21     1.4499  -14.9503   -2.1487 C.ar     1 ZINC000003871842    0.1400
22     N22     1.3210  -16.3296   -2.3026 N.pl3    1 ZINC000003871842   -0.6300
23     C23     0.4911  -17.0373   -1.4725 C.cat    1 ZINC000003871842    0.7500
24     N24    -0.2780  -16.3956   -0.5949 N.pl3    1 ZINC000003871842   -0.7900
25     N25     0.4538  -18.3666   -1.5436 N.pl3    1 ZINC000003871842   -0.7800
26     H26    -0.1336  -18.8674   -0.9561 H        1 ZINC000003871842    0.4500
27     H27     1.0140  -18.8340   -2.1828 H        1 ZINC000003871842    0.4400
28     C28     1.4051  -14.3866   -0.8771 C.ar     1 ZINC000003871842   -0.1700
29     C29     1.5373  -13.0256   -0.7209 C.ar     1 ZINC000003871842   -0.0200
30     C30     1.0758   -7.7714   -2.7548 C.ar     1 ZINC000003871842   -0.1100
31     C31     1.2207   -6.4173   -2.5230 C.ar     1 ZINC000003871842   -0.0900
32     H32     2.9362    0.9077    3.6520 H        1 ZINC000003871842    0.0600
33     H33     1.7294    1.2917    2.4012 H        1 ZINC000003871842    0.0800
34     H34     1.2080    0.9738    4.0731 H        1 ZINC000003871842    0.0800
35     H35     1.1786   -1.1194    4.9512 H        1 ZINC000003871842    0.0900
36     H36     0.4383   -2.1508    3.7037 H        1 ZINC000003871842    0.0700
37     H37     2.1328   -2.4106    4.1827 H        1 ZINC000003871842    0.0700
38     H38     2.6072   -3.2101    2.0709 H        1 ZINC000003871842    0.1000
39     H39     0.9127   -2.9504    1.5919 H        1 ZINC000003871842    0.1000
40     H40     1.9289   -3.8848   -2.5096 H        1 ZINC000003871842    0.1200
41     H41     3.6234   -4.1446   -2.0306 H        1 ZINC000003871842    0.1200
42     H42     4.4450   -6.3736   -1.5286 H        1 ZINC000003871842    0.1300
43     H43     4.1929   -8.7888   -1.9305 H        1 ZINC000003871842    0.1300
44     H44     1.8844  -12.1497   -3.9869 H        1 ZINC000003871842    0.1600
45     H45     1.6580  -14.5812   -4.2522 H        1 ZINC000003871842    0.1500
46     H46     1.8187  -16.7886   -2.9972 H        1 ZINC000003871842    0.4500
47     H47    -0.3818  -15.4329   -0.6538 H        1 ZINC000003871842    0.4400
48     H48    -0.7345  -16.8908    0.1032 H        1 ZINC000003871842    0.4400
49     H49     1.2703  -15.0183   -0.0116 H        1 ZINC000003871842    0.1500
50     H50     1.5029  -12.5888    0.2662 H        1 ZINC000003871842    0.1600
51     H51     0.1298   -8.1626   -3.0989 H        1 ZINC000003871842    0.1300
52     H52     0.3886   -5.7493   -2.6896 H        1 ZINC000003871842    0.1400
@<TRIPOS>BOND
1     1     2     1
2     1     32    1
3     1     33    1
4     1     34    1
5     2     3     1
6     2     4     am
7     3     35    1
8     3     36    1
9     3     37    1
10    4     5     2
11    4     6     1
12    6     7     1
13    6     38    1
14    6     39    1
15    7     8     1
16    8     9     2
17    8     10    1
18    10    11    1
19    10    40    1
20    10    41    1
21    11    31    ar
22    11    12    ar
23    12    13    ar
24    12    42    1
25    13    14    ar
26    13    43    1
27    14    15    1
28    14    30    ar
29    15    16    1
30    16    17    2
31    16    18    1
32    18    29    ar
33    18    19    ar
34    19    20    ar
35    19    44    1
36    20    21    ar
37    20    45    1
38    21    22    1
39    21    28    ar
40    22    23    ar
41    22    46    1
42    23    24    ar
43    23    25    ar
44    24    47    1
45    24    48    1
46    25    26    1
47    25    27    1
48    28    29    ar
49    28    49    1
50    29    50    1
51    30    31    ar
52    30    51    1
53    31    52    1
@<TRIPOS>SUBSTRUCTURE
1   ZINC000003871842 1     RESIDUE    1   A     ZIN   1

@<TRIPOS>MOLECULE
ZINC000003871842
51    52    1     0     0
SMALL
USER_CHARGES
@<TRIPOS>ATOM
1      C1     -1.5825    1.3268   -0.7875 C.3      1 ZINC000003871842    0.0900
2      N2     -1.3463   -0.1182   -0.7370 N.am     1 ZINC000003871842   -0.6200
3      C3     -0.7878   -0.7273    0.4727 C.3      1 ZINC000003871842    0.0700
4      C4     -1.6428   -0.8872   -1.8034 C.2      1 ZINC000003871842    0.5100
5      O5     -2.1052   -0.3830   -2.8048 O.2      1 ZINC000003871842   -0.5100
6      C6     -1.3998   -2.3736   -1.7514 C.3      1 ZINC000003871842    0.0500
7      O7     -1.7970   -2.9733   -3.0127 O.3      1 ZINC000003871842   -0.3300
8      C8     -1.6435   -4.3015   -3.1310 C.2      1 ZINC000003871842    0.4600
9      O9     -1.1922   -4.9418   -2.2111 O.2      1 ZINC000003871842   -0.4900
10     C10    -2.0340   -4.9942   -4.4111 C.3      1 ZINC000003871842   -0.0700
11     C11    -1.7640   -6.4714   -4.2856 C.ar     1 ZINC000003871842   -0.0800
12     C12    -0.5315   -6.9812   -4.6503 C.ar     1 ZINC000003871842   -0.0900
13     C13    -0.2816   -8.3350   -4.5366 C.ar     1 ZINC000003871842   -0.1200
14     C14    -1.2684   -9.1834   -4.0556 C.ar     1 ZINC000003871842    0.0900
15     O15    -1.0248  -10.5157   -3.9424 O.3      1 ZINC000003871842   -0.2900
16     C16    -0.2743  -10.9138   -2.8961 C.2      1 ZINC000003871842    0.5100
17     O17     0.0808  -10.1058   -2.0608 O.2      1 ZINC000003871842   -0.4900
18     C18     0.1158  -12.3293   -2.7651 C.ar     1 ZINC000003871842   -0.1500
19     C19    -0.2871  -13.2593   -3.7285 C.ar     1 ZINC000003871842   -0.0400
20     C20     0.0792  -14.5799   -3.6032 C.ar     1 ZINC000003871842   -0.1200
21     C21     0.8499  -14.9902   -2.5192 C.ar     1 ZINC000003871842    0.2200
22     N22     1.2189  -16.3277   -2.3956 N.pl3    1 ZINC000003871842   -0.6700
23     C23     1.5478  -17.0577   -3.5162 C.2      1 ZINC000003871842    0.6300
24     N24     1.6259  -16.4702   -4.6768 N.2      1 ZINC000003871842   -0.8000
25     N25     1.7938  -18.4063   -3.4104 N.pl3    1 ZINC000003871842   -0.8900
26     C26     1.2531  -14.0671   -1.5587 C.ar     1 ZINC000003871842   -0.1700
27     C27     0.8945  -12.7441   -1.6802 C.ar     1 ZINC000003871842   -0.0300
28     C28    -2.5041   -8.6693   -3.6899 C.ar     1 ZINC000003871842   -0.1100
29     C29    -2.7472   -7.3140   -3.8006 C.ar     1 ZINC000003871842   -0.0900
30     H30    -0.6917    1.8275   -1.1667 H        1 ZINC000003871842    0.0600
31     H31    -2.4248    1.5344   -1.4475 H        1 ZINC000003871842    0.0800
32     H32    -1.8069    1.6935    0.2141 H        1 ZINC000003871842    0.0700
33     H33    -0.6144    0.0454    1.2217 H        1 ZINC000003871842    0.0900
34     H34    -1.4889   -1.4635    0.8658 H        1 ZINC000003871842    0.0700
35     H35     0.1555   -1.2169    0.2307 H        1 ZINC000003871842    0.0700
36     H36    -0.3407   -2.5627   -1.5767 H        1 ZINC000003871842    0.1000
37     H37    -1.9851   -2.8093   -0.9416 H        1 ZINC000003871842    0.1000
38     H38    -3.0951   -4.8337   -4.6020 H        1 ZINC000003871842    0.1200
39     H39    -1.4507   -4.5871   -5.2371 H        1 ZINC000003871842    0.1200
40     H40     0.2363   -6.3203   -5.0247 H        1 ZINC000003871842    0.1300
41     H41     0.6810   -8.7328   -4.8223 H        1 ZINC000003871842    0.1300
42     H42    -0.8855  -12.9417   -4.5696 H        1 ZINC000003871842    0.1400
43     H43    -0.2319  -15.2988   -4.3467 H        1 ZINC000003871842    0.1500
44     H44     1.2443  -16.7450   -1.5203 H        1 ZINC000003871842    0.4200
45     H45     1.8576  -16.9843   -5.4660 H        1 ZINC000003871842    0.3400
46     H46     1.7356  -18.8436   -2.5466 H        1 ZINC000003871842    0.3900
47     H47     2.0254  -18.9205   -4.1997 H        1 ZINC000003871842    0.4100
48     H48     1.8511  -14.3889   -0.7189 H        1 ZINC000003871842    0.1300
49     H49     1.2077  -12.0283   -0.9345 H        1 ZINC000003871842    0.1400
50     H50    -3.2739   -9.3277   -3.3152 H        1 ZINC000003871842    0.1300
51     H51    -3.7088   -6.9133   -3.5158 H        1 ZINC000003871842    0.1300
@<TRIPOS>BOND
1     1     2     1
2     1     30    1
3     1     31    1
4     1     32    1
5     2     3     1
6     2     4     am
7     3     33    1
8     3     34    1
9     3     35    1
10    4     5     2
11    4     6     1
12    6     7     1
13    6     36    1
14    6     37    1
15    7     8     1
16    8     9     2
17    8     10    1
18    10    11    1
19    10    38    1
20    10    39    1
21    11    29    ar
22    11    12    ar
23    12    13    ar
24    12    40    1
25    13    14    ar
26    13    41    1
27    14    15    1
28    14    28    ar
29    15    16    1
30    16    17    2
31    16    18    1
32    18    27    ar
33    18    19    ar
34    19    20    ar
35    19    42    1
36    20    21    ar
37    20    43    1
38    21    22    1
39    21    26    ar
40    22    23    1
41    22    44    1
42    23    24    2
43    23    25    1
44    24    45    1
45    25    46    1
46    25    47    1
47    26    27    ar
48    26    48    1
49    27    49    1
50    28    29    ar
51    28    50    1
52    29    51    1
@<TRIPOS>SUBSTRUCTURE
1   ZINC000003871842 1     RESIDUE    1   A     ZIN   1
