@<TRIPOS>MOLECULE
ZINC000003874467
  45   47    0    0    0
SMALL
USER_CHARGES
NO_NAME
@<TRIPOS>ATOM
    1 N1       -1.9085    -1.6793    -3.5614 N.pl3  1 <0>      -0.7900
    2 C2       -1.5187    -2.4070    -2.5165 C.cat  1 <0>       0.7500
    3 N3       -0.4778    -3.2301    -2.6293 N.pl3  1 <0>      -0.7800
    4 H4       -0.1938    -3.7601    -1.8682 H      1 <0>       0.4400
    5 H5       -0.0036    -3.2995    -3.4727 H      1 <0>       0.4500
    6 N6       -2.1887    -2.3089    -1.3247 N.pl3  1 <0>      -0.6400
    7 C7       -3.3543    -1.5493    -1.2411 C.ar   1 <0>       0.1400
    8 C8       -4.3029    -1.6195    -2.2568 C.ar   1 <0>      -0.1700
    9 C9       -5.4551    -0.8708    -2.1776 C.ar   1 <0>      -0.0200
   10 C10      -5.6718    -0.0389    -1.0748 C.ar   1 <0>      -0.1100
   11 C11      -6.9049     0.7642    -0.9861 C.2    1 <0>       0.5100
   12 O12      -7.7344     0.7037    -1.8720 O.2    1 <0>      -0.4700
   13 O13      -7.1122     1.5655     0.0776 O.3    1 <0>      -0.2900
   14 C14      -8.2175     2.3547     0.0491 C.ar   1 <0>       0.1200
   15 C15      -9.4527     1.8057     0.3095 C.ar   1 <0>      -0.1100
   16 C16     -10.5941     2.6222     0.2798 C.ar   1 <0>       0.0000
   17 C17     -11.8708     2.0917     0.5419 C.ar   1 <0>      -0.0800
   18 C18     -12.9616     2.8989     0.5079 C.ar   1 <0>      -0.0900
   19 C19     -12.8360     4.2678     0.2132 C.ar   1 <0>      -0.1500
   20 C20     -14.0403     5.1248     0.1826 C.cat  1 <0>       0.6000
   21 N21     -15.2383     4.5993     0.4337 N.pl3  1 <0>      -0.7600
   22 N22     -13.9274     6.4226    -0.0961 N.pl3  1 <0>      -0.7600
   23 H23     -14.7175     6.9849    -0.1161 H      1 <0>       0.4400
   24 H24     -13.0550     6.8052    -0.2789 H      1 <0>       0.4400
   25 C25     -11.5931     4.8200    -0.0483 C.ar   1 <0>      -0.0100
   26 C26     -10.4545     4.0021    -0.0188 C.ar   1 <0>      -0.0600
   27 C27      -9.1762     4.5298    -0.2790 C.ar   1 <0>      -0.0700
   28 C28      -8.0872     3.7176    -0.2388 C.ar   1 <0>      -0.1100
   29 C29      -4.7164     0.0290    -0.0561 C.ar   1 <0>      -0.0200
   30 C30      -3.5692    -0.7268    -0.1393 C.ar   1 <0>      -0.1200
   31 H31      -1.3957    -1.6991    -4.3846 H      1 <0>       0.4400
   32 H32      -2.7075    -1.1327    -3.5008 H      1 <0>       0.4400
   33 H33      -1.8517    -2.7682    -0.5396 H      1 <0>       0.4500
   34 H34      -4.1347    -2.2620    -3.1085 H      1 <0>       0.1500
   35 H35      -6.1907    -0.9255    -2.9664 H      1 <0>       0.1600
   36 H36      -9.5430     0.7533     0.5348 H      1 <0>       0.1500
   37 H37     -11.9828     1.0420     0.7698 H      1 <0>       0.1500
   38 H38     -13.9382     2.4842     0.7095 H      1 <0>       0.1400
   39 H39     -15.3206     3.6544     0.6367 H      1 <0>       0.4500
   40 H40     -16.0285     5.1616     0.4137 H      1 <0>       0.4400
   41 H41     -11.5016     5.8721    -0.2742 H      1 <0>       0.1500
   42 H42      -9.0602     5.5793    -0.5061 H      1 <0>       0.1500
   43 H43      -7.1086     4.1284    -0.4391 H      1 <0>       0.1500
   44 H44      -4.8804     0.6708     0.7970 H      1 <0>       0.1600
   45 H45      -2.8310    -0.6751     0.6473 H      1 <0>       0.1500
@<TRIPOS>BOND
   1    1    2 ar
   2    1   31 1
   3    1   32 1
   4    2    3 ar
   5    2    6 ar
   6    3    4 1
   7    3    5 1
   8    6    7 1
   9    6   33 1
  10    7   30 ar
  11    7    8 ar
  12    8    9 ar
  13    8   34 1
  14    9   10 ar
  15    9   35 1
  16   10   11 1
  17   10   29 ar
  18   11   12 2
  19   11   13 1
  20   13   14 1
  21   14   28 ar
  22   14   15 ar
  23   15   16 ar
  24   15   36 1
  25   16   26 ar
  26   16   17 ar
  27   17   18 ar
  28   17   37 1
  29   18   19 ar
  30   18   38 1
  31   19   20 1
  32   19   25 ar
  33   20   21 ar
  34   20   22 ar
  35   21   39 1
  36   21   40 1
  37   22   23 1
  38   22   24 1
  39   25   26 ar
  40   25   41 1
  41   26   27 ar
  42   27   28 ar
  43   27   42 1
  44   28   43 1
  45   29   30 ar
  46   29   44 1
  47   30   45 1

@<TRIPOS>MOLECULE
ZINC000003874467
  44   46    0    0    0
SMALL
USER_CHARGES
NO_NAME
@<TRIPOS>ATOM
    1 N1       -3.6138    -0.7231    -0.8536 N.2    1 <0>      -0.8100
    2 C2       -3.4481    -0.1158     0.2874 C.2    1 <0>       0.6300
    3 N3       -3.5477     1.2537     0.3581 N.pl3  1 <0>      -0.8900
    4 N4       -3.1732    -0.8458     1.4224 N.pl3  1 <0>      -0.6600
    5 C5       -2.9535    -2.2184     1.3316 C.ar   1 <0>       0.2300
    6 C6       -3.3786    -3.0588     2.3564 C.ar   1 <0>      -0.1700
    7 C7       -3.1632    -4.4153     2.2700 C.ar   1 <0>      -0.0200
    8 C8       -2.5165    -4.9490     1.1509 C.ar   1 <0>      -0.1600
    9 C9       -2.2845    -6.4015     1.0546 C.2    1 <0>       0.5200
   10 O10      -2.6554    -7.1367     1.9483 O.2    1 <0>      -0.4900
   11 O11      -1.6611    -6.9142    -0.0248 O.3    1 <0>      -0.2900
   12 C12      -1.3858    -8.2444    -0.0041 C.ar   1 <0>       0.1300
   13 C13      -2.3993    -9.1524    -0.2116 C.ar   1 <0>      -0.1200
   14 C14      -2.1135   -10.5266    -0.1904 C.ar   1 <0>       0.0000
   15 C15      -3.1270   -11.4801    -0.3995 C.ar   1 <0>      -0.0800
   16 C16      -2.8291   -12.8042    -0.3748 C.ar   1 <0>      -0.0900
   17 C17      -1.5137   -13.2426    -0.1424 C.ar   1 <0>      -0.1600
   18 C18      -1.2162   -14.6906    -0.1211 C.cat  1 <0>       0.6000
   19 N19      -2.1927   -15.5742    -0.3217 N.pl3  1 <0>      -0.7600
   20 N20       0.0283   -15.1117     0.0987 N.pl3  1 <0>      -0.7700
   21 H21       0.7393   -14.4683     0.2448 H      1 <0>       0.4400
   22 H22       0.2235   -16.0618     0.1127 H      1 <0>       0.4300
   23 C23      -0.4942   -12.3286     0.0664 C.ar   1 <0>      -0.0100
   24 C24      -0.7822   -10.9565     0.0451 C.ar   1 <0>      -0.0700
   25 C25       0.2292   -10.0004     0.2528 C.ar   1 <0>      -0.0800
   26 C26      -0.0744    -8.6759     0.2222 C.ar   1 <0>      -0.1100
   27 C27      -2.0909    -4.1016     0.1232 C.ar   1 <0>      -0.0400
   28 C28      -2.3146    -2.7467     0.2136 C.ar   1 <0>      -0.1200
   29 H29      -3.8074    -0.2090    -1.6530 H      1 <0>       0.3500
   30 H30      -3.6689     1.7736    -0.4517 H      1 <0>       0.4100
   31 H31      -3.4967     1.6999     1.2179 H      1 <0>       0.3900
   32 H32      -3.1326    -0.4042     2.2851 H      1 <0>       0.4200
   33 H33      -3.8776    -2.6459     3.2206 H      1 <0>       0.1400
   34 H34      -3.4930    -5.0668     3.0657 H      1 <0>       0.1400
   35 H35      -3.4080    -8.8098    -0.3892 H      1 <0>       0.1500
   36 H36      -4.1422   -11.1584    -0.5793 H      1 <0>       0.1500
   37 H37      -3.6125   -13.5301    -0.5355 H      1 <0>       0.1400
   38 H38      -3.0989   -15.2675    -0.4817 H      1 <0>       0.4400
   39 H39      -1.9975   -16.5242    -0.3077 H      1 <0>       0.4300
   40 H40       0.5148   -12.6702     0.2446 H      1 <0>       0.1400
   41 H41       1.2455   -10.3184     0.4324 H      1 <0>       0.1500
   42 H42       0.7061    -7.9468     0.3823 H      1 <0>       0.1500
   43 H43      -1.5908    -4.5104    -0.7424 H      1 <0>       0.1400
   44 H44      -1.9865    -2.0917    -0.5799 H      1 <0>       0.1500
@<TRIPOS>BOND
   1    1    2 2
   2    1   29 1
   3    2    3 1
   4    2    4 1
   5    3   30 1
   6    3   31 1
   7    4    5 1
   8    4   32 1
   9    5   28 ar
  10    5    6 ar
  11    6    7 ar
  12    6   33 1
  13    7    8 ar
  14    7   34 1
  15    8    9 1
  16    8   27 ar
  17    9   10 2
  18    9   11 1
  19   11   12 1
  20   12   26 ar
  21   12   13 ar
  22   13   14 ar
  23   13   35 1
  24   14   24 ar
  25   14   15 ar
  26   15   16 ar
  27   15   36 1
  28   16   17 ar
  29   16   37 1
  30   17   18 1
  31   17   23 ar
  32   18   19 ar
  33   18   20 ar
  34   19   38 1
  35   19   39 1
  36   20   21 1
  37   20   22 1
  38   23   24 ar
  39   23   40 1
  40   24   25 ar
  41   25   26 ar
  42   25   41 1
  43   26   42 1
  44   27   28 ar
  45   27   43 1
  46   28   44 1
