@<TRIPOS>MOLECULE
ZINC000001908051
60    62    1     0     0
SMALL
USER_CHARGES
@<TRIPOS>ATOM
1      C1      1.0751    0.9756    0.7956 C.3      1 ZINC000001908051    0.0300
2      O2      1.0562   -0.4533    0.5380 O.3      1 ZINC000001908051   -0.3600
3      C3      0.7469   -0.8437   -0.7085 C.2      1 ZINC000001908051    0.4600
4      O4      0.5001   -0.0188   -1.5562 O.2      1 ZINC000001908051   -0.4900
5      C5      0.7074   -2.3108   -1.0506 C.3      1 ZINC000001908051   -0.0800
6      H6      1.3067   -2.8680   -0.3306 H        1 ZINC000001908051    0.1100
7      C7      1.2727   -2.5220   -2.4566 C.3      1 ZINC000001908051   -0.0800
8      C8      2.7385   -2.1725   -2.4664 C.ar     1 ZINC000001908051   -0.0800
9      C9      3.1419   -0.8986   -2.8240 C.ar     1 ZINC000001908051   -0.0400
10     C10     4.4860   -0.5699   -2.8360 C.ar     1 ZINC000001908051   -0.1100
11     C11     5.4326   -1.5122   -2.4909 C.ar     1 ZINC000001908051   -0.0600
12     C12     5.0321   -2.7989   -2.1288 C.ar     1 ZINC000001908051   -0.1500
13     C13     6.0422   -3.8146   -1.7576 C.cat    1 ZINC000001908051    0.6000
14     N14     7.3363   -3.5015   -1.7686 N.pl3    1 ZINC000001908051   -0.7600
15     N15     5.6570   -5.0415   -1.4126 N.pl3    1 ZINC000001908051   -0.7600
16     H16     4.7142   -5.2696   -1.4046 H        1 ZINC000001908051    0.4400
17     H17     6.3192   -5.7072   -1.1693 H        1 ZINC000001908051    0.4300
18     C18     3.6752   -3.1223   -2.1133 C.ar     1 ZINC000001908051   -0.0500
19     C19    -0.7391   -2.8069   -1.0026 C.3      1 ZINC000001908051    0.1500
20     H20    -1.3384   -2.2497   -1.7226 H        1 ZINC000001908051    0.1100
21     C21    -0.7792   -4.2965   -1.3500 C.3      1 ZINC000001908051   -0.1700
22     N22    -1.2803   -2.6047    0.3436 N.am     1 ZINC000001908051   -0.7300
23     C23    -2.6101   -2.4787    0.5234 C.2      1 ZINC000001908051    0.5600
24     O24    -3.3604   -2.5328   -0.4315 O.2      1 ZINC000001908051   -0.5200
25     C25    -3.1559   -2.2747    1.8812 C.ar     1 ZINC000001908051   -0.1300
26     C26    -2.2937   -2.2067    2.9782 C.ar     1 ZINC000001908051   -0.0800
27     C27    -2.8034   -2.0167    4.2430 C.ar     1 ZINC000001908051   -0.1100
28     C28    -4.1803   -1.8925    4.4293 C.ar     1 ZINC000001908051   -0.0300
29     C29    -4.7280   -1.6879    5.7919 C.ar     1 ZINC000001908051   -0.0100
30     C30    -3.8815   -1.6108    6.9019 C.ar     1 ZINC000001908051   -0.1100
31     C31    -4.4325   -1.4192    8.1521 C.ar     1 ZINC000001908051    0.0800
32     N32    -5.7391   -1.3092    8.3070 N.ar     1 ZINC000001908051   -0.1200
33     O33    -6.2622   -1.1133    9.6082 O.3      1 ZINC000001908051   -0.5400
34     C34    -6.5726   -1.3760    7.2853 C.ar     1 ZINC000001908051    0.0800
35     C35    -6.1047   -1.5610    6.0007 C.ar     1 ZINC000001908051   -0.1100
36     C36    -5.0421   -1.9602    3.3345 C.ar     1 ZINC000001908051   -0.1000
37     C37    -4.5341   -2.1440    2.0681 C.ar     1 ZINC000001908051   -0.0500
38     H38     1.8115    1.4518    0.1483 H        1 ZINC000001908051    0.0600
39     H39     0.0892    1.3942    0.5938 H        1 ZINC000001908051    0.0700
40     H40     1.3388    1.1533    1.8382 H        1 ZINC000001908051    0.1100
41     H41     1.1459   -3.5651   -2.7462 H        1 ZINC000001908051    0.1100
42     H42     0.7418   -1.8821   -3.1615 H        1 ZINC000001908051    0.1100
43     H43     2.4047   -0.1574   -3.0953 H        1 ZINC000001908051    0.1500
44     H44     4.7946    0.4263   -3.1164 H        1 ZINC000001908051    0.1500
45     H45     6.4814   -1.2547   -2.5013 H        1 ZINC000001908051    0.1400
46     H46     7.6169   -2.6076   -2.0200 H        1 ZINC000001908051    0.4400
47     H47     7.9984   -4.1673   -1.5253 H        1 ZINC000001908051    0.4300
48     H48     3.3590   -4.1164   -1.8336 H        1 ZINC000001908051    0.1400
49     H49    -0.3765   -4.4469   -2.3516 H        1 ZINC000001908051    0.0800
50     H50    -0.1798   -4.8537   -0.6299 H        1 ZINC000001908051    0.0600
51     H51    -1.8097   -4.6499   -1.3158 H        1 ZINC000001908051    0.0800
52     H52    -0.6816   -2.5615    1.1056 H        1 ZINC000001908051    0.4000
53     H53    -1.2277   -2.3036    2.8342 H        1 ZINC000001908051    0.1300
54     H54    -2.1369   -1.9641    5.0912 H        1 ZINC000001908051    0.1400
55     H55    -2.8118   -1.7002    6.7825 H        1 ZINC000001908051    0.1700
56     H56    -3.7866   -1.3587    9.0155 H        1 ZINC000001908051    0.1900
57     H57    -7.6347   -1.2810    7.4570 H        1 ZINC000001908051    0.1900
58     H58    -6.7922   -1.6147    5.1696 H        1 ZINC000001908051    0.1700
59     H59    -6.1080   -1.8640    3.4798 H        1 ZINC000001908051    0.1400
60     H60    -5.2015   -2.1961    1.2206 H        1 ZINC000001908051    0.1500
@<TRIPOS>BOND
1     1     2     1
2     1     38    1
3     1     39    1
4     1     40    1
5     2     3     1
6     3     4     2
7     3     5     1
8     5     6     1
9     5     7     1
10    5     19    1
11    7     8     1
12    7     41    1
13    7     42    1
14    8     18    ar
15    8     9     ar
16    9     10    ar
17    9     43    1
18    10    11    ar
19    10    44    1
20    11    12    ar
21    11    45    1
22    12    13    1
23    12    18    ar
24    13    14    ar
25    13    15    ar
26    14    46    1
27    14    47    1
28    15    16    1
29    15    17    1
30    18    48    1
31    19    20    1
32    19    21    1
33    19    22    1
34    21    49    1
35    21    50    1
36    21    51    1
37    22    23    am
38    22    52    1
39    23    24    2
40    23    25    1
41    25    37    ar
42    25    26    ar
43    26    27    ar
44    26    53    1
45    27    28    ar
46    27    54    1
47    28    29    1
48    28    36    ar
49    29    35    ar
50    29    30    ar
51    30    31    ar
52    30    55    1
53    31    32    ar
54    31    56    1
55    32    33    1
56    32    34    ar
57    34    35    ar
58    34    57    1
59    35    58    1
60    36    37    ar
61    36    59    1
62    37    60    1
@<TRIPOS>SUBSTRUCTURE
1   ZINC000001908051 1     RESIDUE    1   A     ZIN   1
